6
gdb 12	73.8472	11.34793	9.83639	3.7286	21.57	-0.2543	0.0302	0.2845	145.3078	0.045279	-169.860788	-169.856903	-169.855958	-169.885594	10.89	
N	-0.0258998583	 1.34614561	 0.0088939089	-0.463064
C	 0.0464672751	-0.0117434132	 0.0012042484	 0.169707
O	 1.0718352049	-0.6525878165	-0.0111331282	-0.304836
144.7399	563.1718	647.4334	1052.0167	1054.3274	1270.9954	1431.0761	1614.5936	1834.1837	2928.8538	3596.5407	3737.3526
NC=O	NC=O	
InChI=1S/CH3NO/c2-1-3/h1H,(H2,2,3)	InChI=1S/CH3NO/c2-1-3/h1H,(H2,2,3)
